/*--------------------------------*- C++ -*----------------------------------*\
| =========                 |                                                 |
| \\      /  F ield         | foam-extend: Open Source CFD                    |
|  \\    /   O peration     | Version:     4.1                                |
|   \\  /    A nd           | Web:         http://www.foam-extend.org         |
|    \\/     M anipulation  |                                                 |
\*---------------------------------------------------------------------------*/
FoamFile
{
    version     2.0;
    format      ascii;
    class       dictionary;
    object      fvSolution;
}
// * * * * * * * * * * * * * * * * * * * * * * * * * * * * * * * * * * * * * //

solvers
{

    "p"
    {
        solver          GAMG;
        tolerance       1e-4;
        relTol          0.01;
        smoother        GaussSeidel;
        nPreSweeps	 0;
        nPostSweeps	 2;
        cacheAgglomeration on;
        agglomerator	 faceAreaPair;
        nCellsInCoarsestLevel 1000;
        mergeLevels	 1;
        minIter         3;
        maxIter         1000;
    }
    "pFinal"
    {
        solver          GAMG;
        tolerance       1e-6;
        relTol          0.0;
        smoother        GaussSeidel;
        nPreSweeps	 0;
        nPostSweeps	 2;
        cacheAgglomeration on;
        agglomerator	 faceAreaPair;
        nCellsInCoarsestLevel 1000;
        mergeLevels	 1;
        minIter         3;
        maxIter         1000;
    }   
    "U|UFinal"
    {
        solver           BiCGStab;
        preconditioner   DILU;
        minIter          3;
        maxIter          1000;
        tolerance        1e-08;
        relTol           0.0;
    }
}

SIMPLE
{
    nNonOrthogonalCorrectors 1;
    pRefPoint (0 -0.45 0.04);
    pRefValue 0;
}

PIMPLE
{
    nOuterCorrectors 2;
    nCorrectors     3;
    nNonOrthogonalCorrectors 1;
    pRefPoint (0 -0.45 0.04);
    pRefValue 0;
    checkMeshCourantNo no;
    correctPhi yes;
}

PISO
{
    nNonOrthogonalCorrectors 1;
}

potentialFlow
{
    nNonOrthogonalCorrectors 10;
}

relaxationFactors
{
    equations
    {
        p	   0.3;
        U         0.7;
        UFinal    0.7;
    }
    fields
    {
    }
}


// ************************************************************************* //
