/*--------------------------------*- C++ -*----------------------------------*\
| =========                 |                                                 |
| \\      /  F ield         | foam-extend: Open Source CFD                    |
|  \\    /   O peration     | Version:     4.1                                |
|   \\  /    A nd           | Web:         http://www.foam-extend.org         |
|    \\/     M anipulation  |                                                 |
\*---------------------------------------------------------------------------*/
FoamFile
{
    version     2.0;
    format      ascii;
    class       polyBoundaryMesh;
    location    "constant/polyMesh";
    object      boundary;
}
// * * * * * * * * * * * * * * * * * * * * * * * * * * * * * * * * * * * * * //

6
(
    INLET
    {
        type            patch;
        nFaces          167;
        startFace       133488;
    }
    OUTLET
    {
        type            patch;
        nFaces          167;
        startFace       133655;
    }
    TOP
    {
        type            patch;
        nFaces          339;
        startFace       133822;
    }
    BOTTOM
    {
        type            patch;
        nFaces          339;
        startFace       134161;
    }
    CYL
    {
        type            patch;
        nFaces          236;
        startFace       134500;
    }
    frontAndBackPlanes
    {
        type            empty;
        nFaces          134112;
        startFace       134736;
    }
)


// ************************************************************************* //
