/*--------------------------------*- C++ -*----------------------------------*\
| =========                 |                                                 |
| \\      /  F ield         | foam-extend: Open Source CFD                    |
|  \\    /   O peration     | Version:     4.1                                |
|   \\  /    A nd           | Web:         http://www.foam-extend.org         |
|    \\/     M anipulation  |                                                 |
\*---------------------------------------------------------------------------*/
FoamFile
{
    version     2.0;
    format      ascii;
    class       dictionary;
    object      controlDict;
}
// * * * * * * * * * * * * * * * * * * * * * * * * * * * * * * * * * * * * * //

DebugSwitches
{
}

application     pimpleFoam;

startFrom       startTime;

startTime       0;

stopAt          endTime;

endTime         200;

deltaT          0.00002; //0.0002 is enough.

writeControl    timeStep;

writeInterval   75;

purgeWrite      0;

writeFormat     ascii;

writePrecision  6;

writeCompression compressed;

timeFormat      general;

timePrecision   6;

runTimeModifiable yes;

adjustTimeStep  yes;

maxCo           0.2;

//Tolerances
//(
//emptyDirectionTolerance 1e-12;
//)

libs
(
    "libimmersedBoundary.so"
    "libimmersedBoundaryDynamicMesh.so"
    "liblduSolvers.so"
);

functions
(
    forces
    {
        type               forces;
        functionObjectLibs ("libforces.so");

        outputControl timeStep;
        outputInterval 10;
        patches ( hoj01 );

        pName       p;
        UName       U;
        rhoName     rhoInf;
        rhoInf      1;

        log         true;
        CofR        ( 0 10 0 );

        Aref 0.08;
        Uref 1;
    }
);


// ************************************************************************* //
